      20
 i =        0, time =        0.000, E =      -299.1416158214
 Cl         5.8700000000        2.3750000000        6.5250000000
 Cl         7.5830000000        1.5560000000        5.8740000000
 Cl         2.7900000000        7.0180000000       -0.0010000000
 Cl         3.2660000000        8.9670000000        0.0190000000
 Cl         7.3420000000        3.3670000000        7.8390000000
 Cl         8.9850000000        3.4330000000        8.9890000000
 Cl         1.1080000000        3.9900000000        2.7900000000
 Cl         0.9770000000        4.1570000000        0.7950000000
 Cl         8.9970000000        8.9980000000        4.3990000000
 Cl         8.9940000000        8.9980000000        6.4060000000
 Cl         2.2370000000        1.8820000000        3.0850000000
 Cl         1.2310000000        0.8600000000        4.4890000000
 Cl         0.8840000000        8.9050000000        8.0020000000
 Cl         2.8710000000        8.8540000000        7.7230000000
 Cl         8.0980000000        4.9300000000        1.1620000000
 Cl         6.1940000000        4.6800000000        1.7470000000
 Cl         2.8920000000        5.2990000000        3.6590000000
 Cl         4.8730000000        5.5010000000        3.4050000000
 Cl         4.9780000000        0.0150000000        0.8540000000
 Cl         6.9110000000        0.0160000000        0.3150000000
      20
 i =        1, time =        0.200, E =      -299.1440780145
 Cl         5.8697799430        2.3753210169        6.5254176857
 Cl         7.5832107605        1.5555559634        5.8740157796
 Cl         2.7899207901        7.0181044671       -0.0011963134
 Cl         3.2664349642        8.9666823744        0.0193047220
 Cl         7.3416037642        3.3674361720        7.8383908849
 Cl         8.9850589012        3.4326714015        8.9895390123
 Cl         1.1076628874        3.9903670119        2.7904964058
 Cl         0.9775304459        4.1573394186        0.7956517900
 Cl         8.9972220527        8.9981314230        4.3990414610
 Cl         8.9944289589        8.9981570975        6.4049617070
 Cl         2.2373232440        1.8824156111        3.0859277277
 Cl         1.2309655624        0.8596285203        4.4887420626
 Cl         0.8842652703        8.9042726228        8.0022461991
 Cl         2.8707210449        8.8546373308        7.7226181046
 Cl         8.0976400032        4.9297672871        1.1617584053
 Cl         6.1936649833        4.6792390336        1.7468005894
 Cl         2.8915825116        5.2984004792        3.6597556427
 Cl         4.8727440128        5.5010679018        3.4043429209
 Cl         4.9781619793        0.0148987994        0.8534588980
 Cl         6.9110779367        0.0169061770        0.3147261708
